<?xml version="1.0" encoding="UTF-8"?>
<edges xmlns:xsi="http://www.w3.org/2001/XMLSchema-instance" xsi:noNamespaceSchemaLocation="http://sumo.dlr.de/xsd/edges_file.xsd">
    <!-- Incoming edges (approaches) -->
    <edge id="E0" from="N1" to="J0" numLanes="3" speed="13.89"/>  <!-- Lane 1: North -->
    <edge id="E1" from="E1" to="J0" numLanes="3" speed="13.89"/>  <!-- Lane 2: East -->
    <edge id="E2" from="S1" to="J0" numLanes="3" speed="13.89"/>  <!-- Lane 3: South -->
    <edge id="E3" from="W1" to="J0" numLanes="3" speed="13.89"/>  <!-- Lane 4: West -->

    <!-- Outgoing edges -->
    <edge id="E4" from="J0" to="N1" numLanes="3" speed="13.89"/>
    <edge id="E5" from="J0" to="E1" numLanes="3" speed="13.89"/>
    <edge id="E6" from="J0" to="S1" numLanes="3" speed="13.89"/>
    <edge id="E7" from="J0" to="W1" numLanes="3" speed="13.89"/>
</edges>