<?xml version="1.0" encoding="UTF-8"?>
<nodes xmlns:xsi="http://www.w3.org/2001/XMLSchema-instance" xsi:noNamespaceSchemaLocation="http://sumo.dlr.de/xsd/nodes_file.xsd">
    <!-- Central intersection node -->
    <node id="J0" x="0.0" y="0.0" type="traffic_light"/>

    <!-- Entry/Exit nodes for each direction -->
    <node id="N1" x="0.0" y="200.0" type="priority"/>    <!-- North -->
    <node id="E1" x="200.0" y="0.0" type="priority"/>    <!-- East -->
    <node id="S1" x="0.0" y="-200.0" type="priority"/>   <!-- South -->
    <node id="W1" x="-200.0" y="0.0" type="priority"/>   <!-- West -->
</nodes>